/*--------------------------------*- C++ -*----------------------------------*\
 =========                |
 \      /  F ield         | OpenFOAM: The Open Source CFD Toolbox
  \    /   O peration     | Website:  https://openfoam.org
   \  /    A nd           | Version:  9                                   
    \/     M anipulation  |
\*---------------------------------------------------------------------------*/
FoamFile
{
    version     2.0;
    format      ascii;
    class       volScalarField;
    object      p;
}
// * * * * * * * * * * * * * * * * * * * * * * * * * * * * * * * * * * * * * //

dimensions      [1 -1 -2 0 0 0 0];

internalField   uniform 1e4;

boundaryField
{
    top
    {
        type            calculated;
        value           $internalField;
    }

    bottom
    {
        type            calculated;
       value           $internalField;
    }

    verticalWall
    {
        type            calculated;
        value           $internalField;
    }

    frontAndBack
    {
        type            empty;
    }
}

// ************************************************************************* //
