/*--------------------------------*- C++ -*----------------------------------*\
| =========                 |                                                 |
| \\      /  F ield         | OpenFOAM: The Open Source CFD Toolbox           |
|  \\    /   O peration     | Version:  dev                                   |
|   \\  /    A nd           | Web:      www.OpenFOAM.org                      |
|    \\/     M anipulation  |                                                 |
\*---------------------------------------------------------------------------*/
FoamFile
{
    version     2.0;
    format      ascii;
    class       volScalarField;
    object      p_rgh;
}
// * * * * * * * * * * * * * * * * * * * * * * * * * * * * * * * * * * * * * //

dimensions      [1 -1 -2 0 0 0 0];

boundaryField
{
     top
    {
        type          prghTotalPressure;
        rho           rho;
        phi           phi;
        p0            $internalField; 
    }
     
    bottom
    {
        type          fixedFluxPressure;
        
    }
    
    verticalWall
    {
        type            fixedFluxPressure;
    }

     frontAndBack
    {
        type            empty;
    }
}

// ************************************************************************* //
